/*--------------------------------*- C++ -*----------------------------------*\
| =========                 |                                                 |
| \\      /  F ield         | OpenFOAM: The Open Source CFD Toolbox           |
|  \\    /   O peration     | Version:  2412                                  |
|   \\  /    A nd           | Website:  www.openfoam.com                      |
|    \\/     M anipulation  |                                                 |
\*---------------------------------------------------------------------------*/
FoamFile
{
    version     2.0;
    format      ascii;
    arch        "LSB;label=32;scalar=64";
    class       polyBoundaryMesh;
    location    "constant/polyMesh";
    object      boundary;
}
// * * * * * * * * * * * * * * * * * * * * * * * * * * * * * * * * * * * * * //

7
(
    top
    {
        type            symmetryPlane;
        inGroups        1(symmetryPlane);
        nFaces          4684;
        startFace       807927;
    }
    inlet
    {
        type            patch;
        nFaces          1875;
        startFace       812611;
    }
    bottom
    {
        type            symmetryPlane;
        inGroups        1(symmetryPlane);
        nFaces          1099;
        startFace       814486;
    }
    outlet
    {
        type            patch;
        nFaces          1544;
        startFace       815585;
    }
    front
    {
        type            symmetryPlane;
        inGroups        1(symmetryPlane);
        nFaces          4674;
        startFace       817129;
    }
    back
    {
        type            symmetryPlane;
        inGroups        1(symmetryPlane);
        nFaces          3070;
        startFace       821803;
    }
    solids
    {
        type            wall;
        inGroups        1(wall);
        nFaces          67966;
        startFace       824873;
    }
)

// ************************************************************************* //
