/*--------------------------------*- C++ -*----------------------------------*\
| Turbulence properties                                                    |
\*---------------------------------------------------------------------------*/

FoamFile
{
    version     2.0;
    format      ascii;
    class       dictionary;
    location    "constant";
    object      turbulenceProperties;
}

simulationType  laminar;

// EOF
